<?xml version="1.0" encoding="UTF-8"?>

<!-- generated on 2024-12-19 14:26:19 by Eclipse SUMO netedit Version 1.21.0
<neteditConfiguration xmlns:xsi="http://www.w3.org/2001/XMLSchema-instance" xsi:noNamespaceSchemaLocation="http://sumo.dlr.de/xsd/neteditConfiguration.xsd">

    <input>
        <sumo-net-file value="F:\Projects\Sumo\maps\Crossing8\Crossing8Course.net.xml"/>
    </input>

    <output>
        <output-file value="F:\Projects\Sumo\maps\Crossing8\Crossing8Course.net.xml"/>
    </output>

    <processing>
        <geometry.min-radius.fix.railways value="false"/>
        <geometry.max-grade.fix value="false"/>
        <offset.disable-normalization value="true"/>
        <lefthand value="0"/>
    </processing>

    <junctions>
        <no-turnarounds value="true"/>
        <junctions.corner-detail value="5"/>
        <junctions.limit-turn-speed value="5.50"/>
        <rectangular-lane-cut value="1"/>
    </junctions>

    <pedestrian>
        <walkingareas value="0"/>
    </pedestrian>

</neteditConfiguration>
-->

<net version="1.20" junctionCornerDetail="5" rectangularLaneCut="true" limitTurnSpeed="5.50" xmlns:xsi="http://www.w3.org/2001/XMLSchema-instance" xsi:noNamespaceSchemaLocation="http://sumo.dlr.de/xsd/net_file.xsd">

    <location netOffset="0.00,0.00" convBoundary="-200.00,-86.70,200.00,86.70" origBoundary="-200.00,-86.70,200.00,86.70" projParameter="!"/>

    <type id="driving" priority="1" speed="13.89" disallow="pedestrian tram rail_urban rail rail_electric rail_fast ship container cable_car subway aircraft wheelchair scooter drone" width="3.65"/>

    <edge id=":2_0" function="internal">
        <lane id=":2_0_0" index="0" disallow="pedestrian tram rail_urban rail rail_electric rail_fast ship container cable_car subway aircraft wheelchair scooter drone" speed="7.76" length="13.10" width="3.75" shape="5.74,8.40 2.87,6.24 0.00,5.52 -2.87,6.24 -5.74,8.40"/>
    </edge>
    <edge id=":2_1" function="internal">
        <lane id=":2_1_0" index="0" disallow="pedestrian tram rail_urban rail rail_electric rail_fast ship container cable_car subway aircraft wheelchair scooter drone" speed="13.89" length="20.00" width="3.75" shape="5.74,8.40 -8.40,-5.74"/>
    </edge>
    <edge id=":2_2" function="internal">
        <lane id=":2_2_0" index="0" disallow="pedestrian tram rail_urban rail rail_electric rail_fast ship container cable_car subway aircraft wheelchair scooter drone" speed="9.25" length="5.59" width="3.75" shape="5.74,8.40 2.60,4.20 2.51,3.87"/>
    </edge>
    <edge id=":2_12" function="internal">
        <lane id=":2_12_0" index="0" disallow="pedestrian tram rail_urban rail rail_electric rail_fast ship container cable_car subway aircraft wheelchair scooter drone" speed="9.25" length="13.56" width="3.75" shape="2.51,3.87 1.55,0.00 2.60,-4.20 5.74,-8.40"/>
    </edge>
    <edge id=":2_3" function="internal">
        <lane id=":2_3_0" index="0" disallow="pedestrian tram rail_urban rail rail_electric rail_fast ship container cable_car subway aircraft wheelchair scooter drone" speed="7.76" length="13.10" width="3.75" shape="8.40,-5.74 6.24,-2.87 5.52,-0.00 6.24,2.87 8.40,5.74"/>
    </edge>
    <edge id=":2_4" function="internal">
        <lane id=":2_4_0" index="0" disallow="pedestrian tram rail_urban rail rail_electric rail_fast ship container cable_car subway aircraft wheelchair scooter drone" speed="13.89" length="20.00" width="3.75" shape="8.40,-5.74 -5.74,8.40"/>
    </edge>
    <edge id=":2_5" function="internal">
        <lane id=":2_5_0" index="0" disallow="pedestrian tram rail_urban rail rail_electric rail_fast ship container cable_car subway aircraft wheelchair scooter drone" speed="9.25" length="19.15" width="3.75" shape="8.40,-5.74 4.20,-2.60 -0.00,-1.55 -4.20,-2.60 -8.40,-5.74"/>
    </edge>
    <edge id=":2_6" function="internal">
        <lane id=":2_6_0" index="0" disallow="pedestrian tram rail_urban rail rail_electric rail_fast ship container cable_car subway aircraft wheelchair scooter drone" speed="7.76" length="13.10" width="3.75" shape="-5.74,-8.40 -2.87,-6.24 -0.00,-5.52 2.87,-6.24 5.74,-8.40"/>
    </edge>
    <edge id=":2_7" function="internal">
        <lane id=":2_7_0" index="0" disallow="pedestrian tram rail_urban rail rail_electric rail_fast ship container cable_car subway aircraft wheelchair scooter drone" speed="13.89" length="20.00" width="3.75" shape="-5.74,-8.40 8.40,5.74"/>
    </edge>
    <edge id=":2_8" function="internal">
        <lane id=":2_8_0" index="0" disallow="pedestrian tram rail_urban rail rail_electric rail_fast ship container cable_car subway aircraft wheelchair scooter drone" speed="9.25" length="5.59" width="3.75" shape="-5.74,-8.40 -2.60,-4.20 -2.51,-3.87"/>
    </edge>
    <edge id=":2_13" function="internal">
        <lane id=":2_13_0" index="0" disallow="pedestrian tram rail_urban rail rail_electric rail_fast ship container cable_car subway aircraft wheelchair scooter drone" speed="9.25" length="13.56" width="3.75" shape="-2.51,-3.87 -1.55,0.00 -2.60,4.20 -5.74,8.40"/>
    </edge>
    <edge id=":2_9" function="internal">
        <lane id=":2_9_0" index="0" disallow="pedestrian tram rail_urban rail rail_electric rail_fast ship container cable_car subway aircraft wheelchair scooter drone" speed="7.76" length="13.10" width="3.75" shape="-8.40,5.74 -6.24,2.87 -5.52,0.00 -6.24,-2.87 -8.40,-5.74"/>
    </edge>
    <edge id=":2_10" function="internal">
        <lane id=":2_10_0" index="0" disallow="pedestrian tram rail_urban rail rail_electric rail_fast ship container cable_car subway aircraft wheelchair scooter drone" speed="13.89" length="20.00" width="3.75" shape="-8.40,5.74 5.74,-8.40"/>
    </edge>
    <edge id=":2_11" function="internal">
        <lane id=":2_11_0" index="0" disallow="pedestrian tram rail_urban rail rail_electric rail_fast ship container cable_car subway aircraft wheelchair scooter drone" speed="9.25" length="19.15" width="3.75" shape="-8.40,5.74 -4.20,2.60 0.00,1.55 4.20,2.60 8.40,5.74"/>
    </edge>
    <edge id=":508.501_0" function="internal">
        <lane id=":508.501_0_0" index="0" disallow="pedestrian tram rail_urban rail rail_electric rail_fast ship container cable_car subway aircraft wheelchair scooter drone" speed="13.89" length="0.10" width="3.75" shape="8.57,11.23 8.57,11.23"/>
    </edge>
    <edge id=":508.501_1" function="internal">
        <lane id=":508.501_1_0" index="0" disallow="pedestrian tram rail_urban rail rail_electric rail_fast ship container cable_car subway aircraft wheelchair scooter drone" speed="13.89" length="0.10" width="3.75" shape="11.23,8.57 11.23,8.57"/>
    </edge>
    <edge id=":509.502_0" function="internal">
        <lane id=":509.502_0_0" index="0" disallow="pedestrian tram rail_urban rail rail_electric rail_fast ship container cable_car subway aircraft wheelchair scooter drone" speed="13.89" length="0.10" width="3.75" shape="-8.57,11.23 -8.57,11.23"/>
    </edge>
    <edge id=":509.502_1" function="internal">
        <lane id=":509.502_1_0" index="0" disallow="pedestrian tram rail_urban rail rail_electric rail_fast ship container cable_car subway aircraft wheelchair scooter drone" speed="13.89" length="0.10" width="3.75" shape="-11.23,8.57 -11.23,8.57"/>
    </edge>
    <edge id=":514.509_0" function="internal">
        <lane id=":514.509_0_0" index="0" disallow="pedestrian tram rail_urban rail rail_electric rail_fast ship container cable_car subway aircraft wheelchair scooter drone" speed="13.89" length="0.10" width="3.75" shape="-11.23,-8.57 -11.23,-8.57"/>
    </edge>
    <edge id=":514.509_1" function="internal">
        <lane id=":514.509_1_0" index="0" disallow="pedestrian tram rail_urban rail rail_electric rail_fast ship container cable_car subway aircraft wheelchair scooter drone" speed="13.89" length="0.10" width="3.75" shape="-8.57,-11.23 -8.57,-11.23"/>
    </edge>
    <edge id=":516.508_0" function="internal">
        <lane id=":516.508_0_0" index="0" disallow="pedestrian tram rail_urban rail rail_electric rail_fast ship container cable_car subway aircraft wheelchair scooter drone" speed="13.89" length="0.10" width="3.75" shape="11.23,-8.57 11.23,-8.57"/>
    </edge>
    <edge id=":516.508_1" function="internal">
        <lane id=":516.508_1_0" index="0" disallow="pedestrian tram rail_urban rail rail_electric rail_fast ship container cable_car subway aircraft wheelchair scooter drone" speed="13.89" length="0.10" width="3.75" shape="8.57,-11.23 8.57,-11.23"/>
    </edge>

    <edge id="-501" from="2" to="508.501" priority="1" type="driving" shape="7.07,7.07 9.90,9.90">
        <lane id="-501_0" index="0" disallow="pedestrian tram rail_urban rail rail_electric rail_fast ship container cable_car subway aircraft wheelchair scooter drone" speed="13.89" length="4.00" width="3.75" shape="8.40,5.74 11.23,8.57" type="driving"/>
    </edge>
    <edge id="-502" from="2" to="509.502" priority="1" type="driving" shape="-7.07,7.07 -9.90,9.90">
        <lane id="-502_0" index="0" disallow="pedestrian tram rail_urban rail rail_electric rail_fast ship container cable_car subway aircraft wheelchair scooter drone" speed="13.89" length="4.00" width="3.75" shape="-5.74,8.40 -8.57,11.23" type="driving"/>
    </edge>
    <edge id="-508" from="516.508" to="508.501" priority="1" type="driving" shape="9.90,-9.90 59.34,-59.34 60.76,-60.76 62.18,-62.16 63.61,-63.56 65.07,-64.93 66.54,-66.28 67.48,-67.11 69.01,-68.40 70.56,-69.65 72.15,-70.87 73.77,-72.04 75.42,-73.18 77.10,-74.27 78.80,-75.32 80.53,-76.32 82.28,-77.29 84.05,-78.21 85.85,-79.08 87.67,-79.91 89.51,-80.69 91.37,-81.43 93.25,-82.12 95.14,-82.77 97.05,-83.36 98.97,-83.91 100.91,-84.41 102.86,-84.86 104.82,-85.26 106.79,-85.62 108.76,-85.92 110.75,-86.17 112.74,-86.38 114.73,-86.53 116.73,-86.64 118.73,-86.69 120.73,-86.70 122.73,-86.66 124.72,-86.56 126.72,-86.42 128.71,-86.22 130.69,-85.98 132.67,-85.68 134.64,-85.34 136.60,-84.95 138.55,-84.51 140.49,-84.02 142.42,-83.48 144.33,-82.89 146.23,-82.26 148.11,-81.58 149.97,-80.85 151.82,-80.08 153.64,-79.26 155.44,-78.39 157.22,-77.48 158.98,-76.53 160.72,-75.53 162.42,-74.49 164.10,-73.40 165.76,-72.28 167.38,-71.11 168.98,-69.91 170.54,-68.66 172.08,-67.38 173.58,-66.05 175.04,-64.70 176.48,-63.30 177.87,-61.87 179.23,-60.40 180.56,-58.90 181.84,-57.37 183.09,-55.81 184.30,-54.21 185.47,-52.59 186.59,-50.94 187.68,-49.26 188.72,-47.55 189.72,-45.82 190.68,-44.06 191.59,-42.28 192.45,-40.48 193.28,-38.66 194.05,-36.81 194.78,-34.95 195.46,-33.07 196.10,-31.18 196.69,-29.26 197.23,-27.34 197.72,-25.40 198.16,-23.45 198.56,-21.49 198.90,-19.52 199.20,-17.54 199.44,-15.56 199.64,-13.57 199.74,-12.32 199.85,-10.33 199.93,-8.33 199.97,-6.33 199.99,-4.33 200.00,-2.33 200.00,1.08 200.00,3.08 199.99,5.08 199.96,7.08 199.91,9.08 199.81,11.08 199.74,12.32 199.57,14.32 199.36,16.31 199.09,18.29 198.78,20.26 198.41,22.23 198.00,24.19 197.54,26.13 197.03,28.07 196.47,29.99 195.87,31.89 195.21,33.78 194.51,35.66 193.76,37.51 192.97,39.35 192.13,41.16 191.25,42.96 190.32,44.73 189.35,46.48 188.33,48.20 187.27,49.90 186.17,51.57 185.03,53.21 183.85,54.82 182.62,56.40 181.36,57.95 180.06,59.47 178.72,60.96 177.35,62.41 175.94,63.83 174.49,65.21 173.01,66.56 171.50,67.87 169.96,69.14 168.38,70.37 166.77,71.56 165.14,72.71 163.47,73.82 161.78,74.89 160.06,75.91 158.32,76.89 156.56,77.83 154.77,78.72 152.96,79.57 151.12,80.37 149.27,81.13 147.40,81.84 145.52,82.50 143.61,83.12 141.70,83.69 139.76,84.21 137.82,84.68 135.87,85.10 133.90,85.48 131.93,85.80 129.95,86.07 127.96,86.30 125.97,86.48 123.97,86.60 121.97,86.68 119.97,86.70 117.97,86.68 115.97,86.61 113.98,86.48 111.99,86.31 110.00,86.08 108.02,85.81 106.04,85.49 104.08,85.12 102.12,84.70 100.18,84.23 98.25,83.71 96.33,83.14 94.43,82.53 92.54,81.87 90.67,81.16 88.82,80.40 86.98,79.60 85.17,78.76 83.38,77.86 81.61,76.93 79.87,75.95 78.15,74.93 76.46,73.86 74.79,72.75 73.16,71.60 71.55,70.41 69.97,69.18 68.43,67.92 67.48,67.11 65.99,65.78 64.52,64.42 63.07,63.04 61.64,61.64 60.23,60.23 9.90,9.90">
        <lane id="-508_0" index="0" disallow="pedestrian tram rail_urban rail rail_electric rail_fast ship container cable_car subway aircraft wheelchair scooter drone" speed="13.89" length="550.32" width="3.75" shape="8.57,-11.23 58.01,-60.67 59.44,-62.09 60.87,-63.50 62.31,-64.91 63.79,-66.30 65.28,-67.67 66.26,-68.53 67.82,-69.85 69.40,-71.12 71.03,-72.37 72.69,-73.57 74.38,-74.74 76.10,-75.85 77.84,-76.93 79.61,-77.95 81.39,-78.94 83.21,-79.89 85.05,-80.78 86.92,-81.63 88.80,-82.42 90.70,-83.18 92.62,-83.89 94.56,-84.55 96.52,-85.16 98.48,-85.72 100.47,-86.23 102.46,-86.69 104.46,-87.10 106.48,-87.47 108.50,-87.78 110.53,-88.03 112.57,-88.25 114.61,-88.40 116.66,-88.51 118.70,-88.56 120.74,-88.57 122.80,-88.53 124.83,-88.43 126.88,-88.29 128.92,-88.08 130.94,-87.84 132.97,-87.53 134.98,-87.18 136.99,-86.78 138.99,-86.33 140.97,-85.83 142.95,-85.28 144.90,-84.68 146.84,-84.03 148.77,-83.33 150.67,-82.59 152.57,-81.80 154.43,-80.96 156.27,-80.07 158.09,-79.14 159.89,-78.17 161.68,-77.14 163.42,-76.08 165.13,-74.96 166.83,-73.82 168.49,-72.62 170.13,-71.39 171.73,-70.11 173.30,-68.80 174.84,-67.44 176.33,-66.06 177.81,-64.63 179.23,-63.16 180.62,-61.66 181.98,-60.12 183.29,-58.56 184.57,-56.96 185.81,-55.32 187.01,-53.67 188.15,-51.98 189.27,-50.26 190.33,-48.51 191.35,-46.74 192.34,-44.94 193.27,-43.11 194.15,-41.27 195.00,-39.41 195.79,-37.51 196.53,-35.61 197.23,-33.69 197.88,-31.76 198.49,-29.79 199.04,-27.82 199.54,-25.84 199.99,-23.84 200.40,-21.84 200.75,-19.82 201.06,-17.79 201.30,-15.77 201.51,-13.74 201.61,-12.44 201.72,-10.42 201.80,-8.39 201.84,-6.36 201.86,-4.34 201.87,-2.33 201.88,1.08 201.87,3.08 201.86,5.10 201.83,7.12 201.78,9.15 201.68,11.18 201.61,12.46 201.44,14.50 201.22,16.54 200.95,18.56 200.63,20.58 200.25,22.60 199.83,24.60 199.36,26.58 198.84,28.57 198.26,30.53 197.65,32.48 196.97,34.42 196.26,36.34 195.49,38.23 194.68,40.11 193.82,41.97 192.92,43.81 191.97,45.62 190.98,47.41 189.93,49.17 188.85,50.91 187.72,52.62 186.56,54.30 185.35,55.95 184.09,57.57 182.80,59.15 181.47,60.71 180.10,62.23 178.70,63.71 177.25,65.17 175.77,66.58 174.26,67.96 172.71,69.30 171.13,70.60 169.51,71.86 167.87,73.08 166.20,74.26 164.49,75.39 162.76,76.49 161.00,77.53 159.22,78.53 157.42,79.50 155.59,80.41 153.73,81.28 151.85,82.10 149.96,82.87 148.04,83.60 146.12,84.28 144.17,84.91 142.21,85.49 140.22,86.03 138.24,86.51 136.24,86.94 134.23,87.33 132.21,87.65 130.18,87.93 128.15,88.17 126.11,88.35 124.06,88.47 122.02,88.55 119.97,88.58 117.93,88.55 115.88,88.48 113.84,88.35 111.80,88.18 109.77,87.94 107.74,87.66 105.72,87.34 103.71,86.96 101.70,86.53 99.72,86.05 97.74,85.51 95.78,84.93 93.83,84.31 91.90,83.63 89.98,82.90 88.09,82.13 86.21,81.31 84.35,80.45 82.52,79.53 80.71,78.58 78.93,77.57 77.17,76.53 75.44,75.43 73.73,74.30 72.06,73.12 70.42,71.90 68.80,70.65 67.23,69.36 66.24,68.52 64.73,67.17 63.24,65.79 61.77,64.39 60.32,62.97 58.90,61.56 8.57,11.23" type="driving"/>
    </edge>
    <edge id="-509" from="514.509" to="509.502" priority="1" type="driving" shape="-9.90,-9.90 -59.34,-59.34 -60.76,-60.76 -62.18,-62.16 -63.61,-63.56 -65.07,-64.93 -66.54,-66.28 -67.48,-67.11 -69.01,-68.40 -70.56,-69.65 -72.15,-70.87 -73.77,-72.04 -75.42,-73.18 -77.10,-74.27 -78.80,-75.32 -80.53,-76.32 -82.28,-77.29 -84.05,-78.21 -85.85,-79.08 -87.67,-79.91 -89.51,-80.69 -91.37,-81.43 -93.25,-82.12 -95.14,-82.77 -97.05,-83.36 -98.97,-83.91 -100.91,-84.41 -102.86,-84.86 -104.82,-85.26 -106.79,-85.62 -108.76,-85.92 -110.75,-86.17 -112.74,-86.38 -114.73,-86.53 -116.73,-86.64 -118.73,-86.69 -120.73,-86.70 -122.73,-86.66 -124.72,-86.56 -126.72,-86.42 -128.71,-86.22 -130.69,-85.98 -132.67,-85.68 -134.64,-85.34 -136.60,-84.95 -138.55,-84.51 -140.49,-84.02 -142.42,-83.48 -144.33,-82.89 -146.23,-82.26 -148.11,-81.58 -149.97,-80.85 -151.82,-80.08 -153.64,-79.26 -155.44,-78.39 -157.22,-77.48 -158.98,-76.53 -160.72,-75.53 -162.42,-74.49 -164.10,-73.40 -165.76,-72.28 -167.38,-71.11 -168.98,-69.91 -170.54,-68.66 -172.08,-67.38 -173.58,-66.05 -175.04,-64.70 -176.48,-63.30 -177.87,-61.87 -179.23,-60.40 -180.56,-58.90 -181.84,-57.37 -183.09,-55.81 -184.30,-54.21 -185.47,-52.59 -186.59,-50.94 -187.68,-49.26 -188.72,-47.55 -189.72,-45.82 -190.68,-44.06 -191.59,-42.28 -192.45,-40.48 -193.28,-38.66 -194.05,-36.81 -194.78,-34.95 -195.46,-33.07 -196.10,-31.18 -196.69,-29.26 -197.23,-27.34 -197.72,-25.40 -198.16,-23.45 -198.56,-21.49 -198.90,-19.52 -199.20,-17.54 -199.44,-15.56 -199.64,-13.57 -199.74,-12.32 -199.85,-10.33 -199.93,-8.33 -199.97,-6.33 -199.99,-4.33 -200.00,-2.33 -200.00,1.08 -200.00,3.08 -199.99,5.08 -199.96,7.08 -199.91,9.08 -199.81,11.08 -199.74,12.32 -199.57,14.32 -199.36,16.31 -199.09,18.29 -198.78,20.26 -198.41,22.23 -198.00,24.19 -197.54,26.13 -197.03,28.07 -196.47,29.99 -195.87,31.89 -195.21,33.78 -194.51,35.66 -193.76,37.51 -192.97,39.35 -192.13,41.16 -191.25,42.96 -190.32,44.73 -189.35,46.48 -188.33,48.20 -187.27,49.90 -186.17,51.57 -185.03,53.21 -183.85,54.82 -182.62,56.40 -181.36,57.95 -180.06,59.47 -178.72,60.96 -177.35,62.41 -175.94,63.83 -174.49,65.21 -173.01,66.56 -171.50,67.87 -169.96,69.14 -168.38,70.37 -166.77,71.56 -165.14,72.71 -163.47,73.82 -161.78,74.89 -160.06,75.91 -158.32,76.89 -156.56,77.83 -154.77,78.72 -152.96,79.57 -151.12,80.37 -149.27,81.13 -147.40,81.84 -145.52,82.50 -143.61,83.12 -141.70,83.69 -139.76,84.21 -137.82,84.68 -135.87,85.10 -133.90,85.48 -131.93,85.80 -129.95,86.07 -127.96,86.30 -125.97,86.48 -123.97,86.60 -121.97,86.68 -119.97,86.70 -117.97,86.68 -115.97,86.61 -113.98,86.48 -111.99,86.31 -110.00,86.08 -108.02,85.81 -106.04,85.49 -104.08,85.12 -102.12,84.70 -100.18,84.23 -98.25,83.71 -96.33,83.14 -94.43,82.53 -92.54,81.87 -90.67,81.16 -88.82,80.40 -86.98,79.60 -85.17,78.76 -83.38,77.86 -81.61,76.93 -79.87,75.95 -78.15,74.93 -76.46,73.86 -74.79,72.75 -73.16,71.60 -71.55,70.41 -69.97,69.18 -68.43,67.92 -67.48,67.11 -65.99,65.78 -64.52,64.42 -63.07,63.04 -61.64,61.64 -60.23,60.23 -9.90,9.90">
        <lane id="-509_0" index="0" disallow="pedestrian tram rail_urban rail rail_electric rail_fast ship container cable_car subway aircraft wheelchair scooter drone" speed="13.89" length="532.65" width="3.75" shape="-11.23,-8.57 -60.67,-58.01 -62.08,-59.43 -63.49,-60.82 -64.91,-62.21 -66.35,-63.56 -67.80,-64.89 -68.70,-65.69 -70.20,-66.95 -71.72,-68.18 -73.27,-69.37 -74.85,-70.51 -76.46,-71.62 -78.10,-72.69 -79.76,-73.71 -81.45,-74.69 -83.17,-75.64 -84.89,-76.53 -86.65,-77.38 -88.42,-78.19 -90.22,-78.96 -92.04,-79.68 -93.88,-80.35 -95.72,-80.99 -97.58,-81.56 -99.46,-82.10 -101.35,-82.59 -103.26,-83.03 -105.18,-83.42 -107.10,-83.77 -109.02,-84.06 -110.97,-84.31 -112.91,-84.51 -114.85,-84.66 -116.80,-84.77 -118.76,-84.82 -120.72,-84.83 -122.66,-84.79 -124.61,-84.69 -126.56,-84.55 -128.50,-84.36 -130.44,-84.12 -132.37,-83.83 -134.30,-83.50 -136.21,-83.12 -138.11,-82.69 -140.01,-82.21 -141.89,-81.68 -143.76,-81.10 -145.62,-80.49 -147.45,-79.83 -149.27,-79.11 -151.07,-78.36 -152.85,-77.56 -154.61,-76.71 -156.35,-75.82 -158.07,-74.89 -159.76,-73.92 -161.42,-72.90 -163.07,-71.84 -164.69,-70.74 -166.27,-69.60 -167.83,-68.43 -169.35,-67.21 -170.86,-65.96 -172.32,-64.66 -173.75,-63.34 -175.15,-61.97 -176.51,-60.58 -177.84,-59.14 -179.14,-57.68 -180.39,-56.18 -181.61,-54.66 -182.79,-53.10 -183.93,-51.51 -185.03,-49.90 -186.09,-48.26 -187.11,-46.59 -188.09,-44.90 -189.02,-43.18 -189.91,-41.45 -190.75,-39.69 -191.56,-37.91 -192.31,-36.11 -193.03,-34.29 -193.69,-32.45 -194.32,-30.60 -194.89,-28.73 -195.42,-26.86 -195.90,-24.96 -196.33,-23.06 -196.72,-21.14 -197.05,-19.22 -197.34,-17.29 -197.58,-15.35 -197.77,-13.40 -197.87,-12.20 -197.98,-10.24 -198.06,-8.27 -198.10,-6.30 -198.12,-4.32 -198.13,-2.33 -198.12,1.08 -198.13,3.08 -198.12,5.06 -198.09,7.04 -198.04,9.01 -197.94,10.98 -197.87,12.18 -197.70,14.14 -197.50,16.08 -197.23,18.02 -196.93,19.94 -196.57,21.86 -196.17,23.78 -195.72,25.68 -195.22,27.57 -194.68,29.45 -194.09,31.30 -193.45,33.14 -192.76,34.98 -192.03,36.79 -191.26,38.59 -190.44,40.35 -189.58,42.11 -188.67,43.84 -187.72,45.55 -186.73,47.23 -185.69,48.89 -184.62,50.52 -183.50,52.12 -182.35,53.69 -181.15,55.23 -179.92,56.75 -178.65,58.23 -177.34,59.69 -176.00,61.11 -174.63,62.49 -173.21,63.84 -171.76,65.16 -170.29,66.44 -168.79,67.68 -167.25,68.88 -165.67,70.04 -164.08,71.16 -162.45,72.25 -160.80,73.29 -159.12,74.29 -157.42,75.25 -155.70,76.16 -153.95,77.03 -152.19,77.86 -150.39,78.64 -148.58,79.39 -146.76,80.08 -144.92,80.72 -143.05,81.33 -141.19,81.89 -139.30,82.39 -137.40,82.85 -135.50,83.26 -133.57,83.63 -131.65,83.95 -129.72,84.21 -127.77,84.43 -125.83,84.61 -123.88,84.73 -121.92,84.81 -119.97,84.83 -118.01,84.81 -116.06,84.74 -114.12,84.61 -112.18,84.44 -110.23,84.22 -108.30,83.96 -106.36,83.64 -104.45,83.28 -102.54,82.87 -100.64,82.41 -98.76,81.91 -96.88,81.35 -95.03,80.75 -93.18,80.11 -91.36,79.42 -89.55,78.67 -87.75,77.89 -85.99,77.07 -84.24,76.19 -82.51,75.28 -80.81,74.33 -79.13,73.33 -77.48,72.29 -75.85,71.20 -74.26,70.08 -72.68,68.92 -71.14,67.71 -69.63,66.48 -68.72,65.70 -67.25,64.39 -65.80,63.05 -64.37,61.69 -62.96,60.31 -61.56,58.90 -11.23,8.57" type="driving"/>
    </edge>
    <edge id="-514" from="2" to="514.509" priority="1" type="driving" shape="-7.07,-7.07 -9.90,-9.90">
        <lane id="-514_0" index="0" disallow="pedestrian tram rail_urban rail rail_electric rail_fast ship container cable_car subway aircraft wheelchair scooter drone" speed="13.89" length="4.00" width="3.75" shape="-8.40,-5.74 -11.23,-8.57" type="driving"/>
    </edge>
    <edge id="-516" from="2" to="516.508" priority="1" type="driving" shape="7.07,-7.07 9.90,-9.90">
        <lane id="-516_0" index="0" disallow="pedestrian tram rail_urban rail rail_electric rail_fast ship container cable_car subway aircraft wheelchair scooter drone" speed="13.89" length="4.00" width="3.75" shape="5.74,-8.40 8.57,-11.23" type="driving"/>
    </edge>
    <edge id="501" from="508.501" to="2" priority="2" type="driving" shape="9.90,9.90 7.07,7.07">
        <lane id="501_0" index="0" disallow="pedestrian tram rail_urban rail rail_electric rail_fast ship container cable_car subway aircraft wheelchair scooter drone" speed="13.89" length="4.00" width="3.75" shape="8.57,11.23 5.74,8.40" type="driving"/>
    </edge>
    <edge id="502" from="509.502" to="2" priority="0" type="driving" shape="-9.90,9.90 -7.07,7.07">
        <lane id="502_0" index="0" disallow="pedestrian tram rail_urban rail rail_electric rail_fast ship container cable_car subway aircraft wheelchair scooter drone" speed="13.89" length="4.00" width="3.75" shape="-11.23,8.57 -8.40,5.74" type="driving"/>
    </edge>
    <edge id="508" from="508.501" to="516.508" priority="1" type="driving" shape="9.90,9.90 60.23,60.23 61.64,61.64 63.07,63.04 64.52,64.42 65.99,65.78 67.48,67.11 68.43,67.92 69.97,69.18 71.55,70.41 73.16,71.60 74.79,72.75 76.46,73.86 78.15,74.93 79.87,75.95 81.61,76.93 83.38,77.86 85.17,78.76 86.98,79.60 88.82,80.40 90.67,81.16 92.54,81.87 94.43,82.53 96.33,83.14 98.25,83.71 100.18,84.23 102.12,84.70 104.08,85.12 106.04,85.49 108.02,85.81 110.00,86.08 111.99,86.31 113.98,86.48 115.97,86.61 117.97,86.68 119.97,86.70 121.97,86.68 123.97,86.60 125.97,86.48 127.96,86.30 129.95,86.07 131.93,85.80 133.90,85.48 135.87,85.10 137.82,84.68 139.76,84.21 141.70,83.69 143.61,83.12 145.52,82.50 147.40,81.84 149.27,81.13 151.12,80.37 152.96,79.57 154.77,78.72 156.56,77.83 158.32,76.89 160.06,75.91 161.78,74.89 163.47,73.82 165.14,72.71 166.77,71.56 168.38,70.37 169.96,69.14 171.50,67.87 173.01,66.56 174.49,65.21 175.94,63.83 177.35,62.41 178.72,60.96 180.06,59.47 181.36,57.95 182.62,56.40 183.85,54.82 185.03,53.21 186.17,51.57 187.27,49.90 188.33,48.20 189.35,46.48 190.32,44.73 191.25,42.96 192.13,41.16 192.97,39.35 193.76,37.51 194.51,35.66 195.21,33.78 195.87,31.89 196.47,29.99 197.03,28.07 197.54,26.13 198.00,24.19 198.41,22.23 198.78,20.26 199.09,18.29 199.36,16.31 199.57,14.32 199.74,12.32 199.81,11.08 199.91,9.08 199.96,7.08 199.99,5.08 200.00,3.08 200.00,1.08 200.00,-2.33 199.99,-4.33 199.97,-6.33 199.93,-8.33 199.85,-10.33 199.74,-12.32 199.64,-13.57 199.44,-15.56 199.20,-17.54 198.90,-19.52 198.56,-21.49 198.16,-23.45 197.72,-25.40 197.23,-27.34 196.69,-29.26 196.10,-31.18 195.46,-33.07 194.78,-34.95 194.05,-36.81 193.28,-38.66 192.45,-40.48 191.59,-42.28 190.68,-44.06 189.72,-45.82 188.72,-47.55 187.68,-49.26 186.59,-50.94 185.47,-52.59 184.30,-54.21 183.09,-55.81 181.84,-57.37 180.56,-58.90 179.23,-60.40 177.87,-61.87 176.48,-63.30 175.04,-64.70 173.58,-66.05 172.08,-67.38 170.54,-68.66 168.98,-69.91 167.38,-71.11 165.76,-72.28 164.10,-73.40 162.42,-74.49 160.72,-75.53 158.98,-76.53 157.22,-77.48 155.44,-78.39 153.64,-79.26 151.82,-80.08 149.97,-80.85 148.11,-81.58 146.23,-82.26 144.33,-82.89 142.42,-83.48 140.49,-84.02 138.55,-84.51 136.60,-84.95 134.64,-85.34 132.67,-85.68 130.69,-85.98 128.71,-86.22 126.72,-86.42 124.72,-86.56 122.73,-86.66 120.73,-86.70 118.73,-86.69 116.73,-86.64 114.73,-86.53 112.74,-86.38 110.75,-86.17 108.76,-85.92 106.79,-85.62 104.82,-85.26 102.86,-84.86 100.91,-84.41 98.97,-83.91 97.05,-83.36 95.14,-82.77 93.25,-82.12 91.37,-81.43 89.51,-80.69 87.67,-79.91 85.85,-79.08 84.05,-78.21 82.28,-77.29 80.53,-76.32 78.80,-75.32 77.10,-74.27 75.42,-73.18 73.77,-72.04 72.15,-70.87 70.56,-69.65 69.01,-68.40 67.48,-67.11 66.54,-66.28 65.07,-64.93 63.61,-63.56 62.18,-62.16 60.76,-60.76 59.34,-59.34 9.90,-9.90">
        <lane id="508_0" index="0" disallow="pedestrian tram rail_urban rail rail_electric rail_fast ship container cable_car subway aircraft wheelchair scooter drone" speed="13.89" length="532.65" width="3.75" shape="11.23,8.57 61.56,58.90 62.96,60.31 64.37,61.69 65.80,63.05 67.25,64.39 68.72,65.70 69.63,66.48 71.14,67.71 72.68,68.92 74.26,70.08 75.85,71.20 77.48,72.29 79.13,73.33 80.81,74.33 82.51,75.28 84.24,76.19 85.99,77.07 87.75,77.89 89.55,78.67 91.36,79.42 93.18,80.11 95.03,80.75 96.88,81.35 98.76,81.91 100.64,82.41 102.54,82.87 104.45,83.28 106.36,83.64 108.30,83.96 110.23,84.22 112.18,84.44 114.12,84.61 116.06,84.74 118.01,84.81 119.97,84.83 121.92,84.81 123.88,84.73 125.83,84.61 127.77,84.43 129.72,84.21 131.65,83.95 133.57,83.63 135.50,83.26 137.40,82.85 139.30,82.39 141.19,81.89 143.05,81.33 144.92,80.72 146.76,80.08 148.58,79.39 150.39,78.64 152.19,77.86 153.95,77.03 155.70,76.16 157.42,75.25 159.12,74.29 160.80,73.29 162.45,72.25 164.08,71.16 165.67,70.04 167.25,68.88 168.79,67.68 170.29,66.44 171.76,65.16 173.21,63.84 174.63,62.49 176.00,61.11 177.34,59.69 178.65,58.23 179.92,56.75 181.15,55.23 182.35,53.69 183.50,52.12 184.62,50.52 185.69,48.89 186.73,47.23 187.72,45.55 188.67,43.84 189.58,42.11 190.44,40.35 191.26,38.59 192.03,36.79 192.76,34.98 193.45,33.14 194.09,31.30 194.68,29.45 195.22,27.57 195.72,25.68 196.17,23.78 196.57,21.86 196.93,19.94 197.23,18.02 197.50,16.08 197.70,14.14 197.87,12.18 197.94,10.98 198.04,9.01 198.09,7.04 198.12,5.06 198.13,3.08 198.12,1.08 198.13,-2.33 198.12,-4.32 198.10,-6.30 198.06,-8.27 197.98,-10.24 197.87,-12.20 197.77,-13.40 197.58,-15.35 197.34,-17.29 197.05,-19.22 196.72,-21.14 196.33,-23.06 195.90,-24.96 195.42,-26.86 194.89,-28.73 194.32,-30.60 193.69,-32.45 193.03,-34.29 192.31,-36.11 191.56,-37.91 190.75,-39.69 189.91,-41.45 189.02,-43.18 188.09,-44.90 187.11,-46.59 186.09,-48.26 185.03,-49.90 183.93,-51.51 182.79,-53.10 181.61,-54.66 180.39,-56.18 179.14,-57.68 177.84,-59.14 176.51,-60.58 175.15,-61.97 173.75,-63.34 172.32,-64.66 170.86,-65.96 169.35,-67.21 167.83,-68.43 166.27,-69.60 164.69,-70.74 163.07,-71.84 161.42,-72.90 159.76,-73.92 158.07,-74.89 156.35,-75.82 154.61,-76.71 152.85,-77.56 151.07,-78.36 149.27,-79.11 147.45,-79.83 145.62,-80.49 143.76,-81.10 141.89,-81.68 140.01,-82.21 138.11,-82.69 136.21,-83.12 134.30,-83.50 132.37,-83.83 130.44,-84.12 128.50,-84.36 126.56,-84.55 124.61,-84.69 122.66,-84.79 120.72,-84.83 118.76,-84.82 116.80,-84.77 114.85,-84.66 112.91,-84.51 110.97,-84.31 109.02,-84.06 107.10,-83.77 105.18,-83.42 103.26,-83.03 101.35,-82.59 99.46,-82.10 97.58,-81.56 95.72,-80.99 93.88,-80.35 92.04,-79.68 90.22,-78.96 88.42,-78.19 86.65,-77.38 84.89,-76.53 83.17,-75.64 81.45,-74.69 79.76,-73.71 78.10,-72.69 76.46,-71.62 74.85,-70.51 73.27,-69.37 71.72,-68.18 70.20,-66.95 68.70,-65.69 67.80,-64.89 66.35,-63.56 64.91,-62.21 63.49,-60.82 62.08,-59.43 60.67,-58.01 11.23,-8.57" type="driving"/>
    </edge>